support/feeders/R1-12.47-4.glm
clock {
     timezone EST+5EDT;
     timestamp '2000-01-01 0:00:00';
     stoptime '2000-01-01 0:01:00';
}
#set profiler=1
module tape;
module powerflow{
     solver_method NR;
      default_maximum_voltage_error 1e-6;
};

object transformer_configuration {
  name XF1_PADMOUNT_AS_25;
  power_rating 25.00;
  powerA_rating 25.00;
  powerB_rating 0.0;
  powerC_rating 0.0;
  install_type PADMOUNT;
  connect_type SINGLE_PHASE_CENTER_TAPPED;
  primary_voltage 7200.0;
  secondary_voltage 120.0;
  resistance 0.00800;
  resistance1 0.01600;
  resistance2 0.01600;
  reactance 0.01208;
  reactance1 0.00604;
  reactance2 0.00604;
  shunt_resistance 192.31;
  shunt_reactance 51.81;
}
object transformer_configuration {
  name XF1_PADMOUNT_BS_37p5;
  power_rating 37.50;
  powerA_rating 0.0;
  powerB_rating 37.50;
  powerC_rating 0.0;
  install_type PADMOUNT;
  connect_type SINGLE_PHASE_CENTER_TAPPED;
  primary_voltage 7200.0;
  secondary_voltage 120.0;
  resistance 0.00725;
  resistance1 0.01450;
  resistance2 0.01450;
  reactance 0.01320;
  reactance1 0.00660;
  reactance2 0.00660;
  shunt_resistance 212.77;
  shunt_reactance 57.47;
}
object transformer_configuration {
  name XF1_PADMOUNT_CS_37p5;
  power_rating 37.50;
  powerA_rating 0.0;
  powerB_rating 0.0;
  powerC_rating 37.50;
  install_type PADMOUNT;
  connect_type SINGLE_PHASE_CENTER_TAPPED;
  primary_voltage 7200.0;
  secondary_voltage 120.0;
  resistance 0.00725;
  resistance1 0.01450;
  resistance2 0.01450;
  reactance 0.01320;
  reactance1 0.00660;
  reactance2 0.00660;
  shunt_resistance 212.77;
  shunt_reactance 57.47;
}
object transformer_configuration {
  name XF1_PADMOUNT_AS_37p5;
  power_rating 37.50;
  powerA_rating 37.50;
  powerB_rating 0.0;
  powerC_rating 0.0;
  install_type PADMOUNT;
  connect_type SINGLE_PHASE_CENTER_TAPPED;
  primary_voltage 7200.0;
  secondary_voltage 120.0;
  resistance 0.00725;
  resistance1 0.01450;
  resistance2 0.01450;
  reactance 0.01320;
  reactance1 0.00660;
  reactance2 0.00660;
  shunt_resistance 212.77;
  shunt_reactance 57.47;
}
object transformer_configuration {
  name XF1_PADMOUNT_CS_25;
  power_rating 25.00;
  powerA_rating 0.0;
  powerB_rating 0.0;
  powerC_rating 25.00;
  install_type PADMOUNT;
  connect_type SINGLE_PHASE_CENTER_TAPPED;
  primary_voltage 7200.0;
  secondary_voltage 120.0;
  resistance 0.00800;
  resistance1 0.01600;
  resistance2 0.01600;
  reactance 0.01208;
  reactance1 0.00604;
  reactance2 0.00604;
  shunt_resistance 192.31;
  shunt_reactance 51.81;
}
object transformer_configuration {
  name XF1_PADMOUNT_AS_75;
  power_rating 75.00;
  powerA_rating 75.00;
  powerB_rating 0.0;
  powerC_rating 0.0;
  install_type PADMOUNT;
  connect_type SINGLE_PHASE_CENTER_TAPPED;
  primary_voltage 7200.0;
  secondary_voltage 120.0;
  resistance 0.00625;
  resistance1 0.01250;
  resistance2 0.01250;
  reactance 0.01352;
  reactance1 0.00676;
  reactance2 0.00676;
  shunt_resistance 238.10;
  shunt_reactance 67.11;
}
object transformer_configuration {
  name XF1_PADMOUNT_BS_100;
  power_rating 100.00;
  powerA_rating 0.0;
  powerB_rating 100.00;
  powerC_rating 0.0;
  install_type PADMOUNT;
  connect_type SINGLE_PHASE_CENTER_TAPPED;
  primary_voltage 7200.0;
  secondary_voltage 120.0;
  resistance 0.00600;
  resistance1 0.01200;
  resistance2 0.01200;
  reactance 0.01752;
  reactance1 0.00876;
  reactance2 0.00876;
  shunt_resistance 250.00;
  shunt_reactance 68.97;
}
object transformer_configuration {
  name XF1_PADMOUNT_CS_75;
  power_rating 75.00;
  powerA_rating 0.0;
  powerB_rating 0.0;
  powerC_rating 75.00;
  install_type PADMOUNT;
  connect_type SINGLE_PHASE_CENTER_TAPPED;
  primary_voltage 7200.0;
  secondary_voltage 120.0;
  resistance 0.00625;
  resistance1 0.01250;
  resistance2 0.01250;
  reactance 0.01352;
  reactance1 0.00676;
  reactance2 0.00676;
  shunt_resistance 238.10;
  shunt_reactance 67.11;
}
object transformer_configuration {
  name XF1_PADMOUNT_AS_167;
  power_rating 167.00;
  powerA_rating 167.00;
  powerB_rating 0.0;
  powerC_rating 0.0;
  install_type PADMOUNT;
  connect_type SINGLE_PHASE_CENTER_TAPPED;
  primary_voltage 7200.0;
  secondary_voltage 120.0;
  resistance 0.00575;
  resistance1 0.01150;
  resistance2 0.01150;
  reactance 0.02216;
  reactance1 0.01108;
  reactance2 0.01108;
  shunt_resistance 263.16;
  shunt_reactance 60.24;
}
object transformer_configuration {
  name XF1_PADMOUNT_BS_250;
  power_rating 250.00;
  powerA_rating 0.0;
  powerB_rating 250.00;
  powerC_rating 0.0;
  install_type PADMOUNT;
  connect_type SINGLE_PHASE_CENTER_TAPPED;
  primary_voltage 7200.0;
  secondary_voltage 120.0;
  resistance 0.00550;
  resistance1 0.01100;
  resistance2 0.01100;
  reactance 0.03080;
  reactance1 0.01540;
  reactance2 0.01540;
  shunt_resistance 277.78;
  shunt_reactance 55.25;
}
object transformer_configuration {
  name XF1_PADMOUNT_CS_167;
  power_rating 167.00;
  powerA_rating 0.0;
  powerB_rating 0.0;
  powerC_rating 167.00;
  install_type PADMOUNT;
  connect_type SINGLE_PHASE_CENTER_TAPPED;
  primary_voltage 7200.0;
  secondary_voltage 120.0;
  resistance 0.00575;
  resistance1 0.01150;
  resistance2 0.01150;
  reactance 0.02216;
  reactance1 0.01108;
  reactance2 0.01108;
  shunt_resistance 263.16;
  shunt_reactance 60.24;
}
object transformer_configuration {
  name XF1_PADMOUNT_BS_167;
  power_rating 167.00;
  powerA_rating 0.0;
  powerB_rating 167.00;
  powerC_rating 0.0;
  install_type PADMOUNT;
  connect_type SINGLE_PHASE_CENTER_TAPPED;
  primary_voltage 7200.0;
  secondary_voltage 120.0;
  resistance 0.00575;
  resistance1 0.01150;
  resistance2 0.01150;
  reactance 0.02216;
  reactance1 0.01108;
  reactance2 0.01108;
  shunt_resistance 263.16;
  shunt_reactance 60.24;
}
object transformer_configuration {
  name XF1_PADMOUNT_AS_50;
  power_rating 50.00;
  powerA_rating 50.00;
  powerB_rating 0.0;
  powerC_rating 0.0;
  install_type PADMOUNT;
  connect_type SINGLE_PHASE_CENTER_TAPPED;
  primary_voltage 7200.0;
  secondary_voltage 120.0;
  resistance 0.00650;
  resistance1 0.01300;
  resistance2 0.01300;
  reactance 0.01416;
  reactance1 0.00708;
  reactance2 0.00708;
  shunt_resistance 222.22;
  shunt_reactance 64.94;
}
object transformer_configuration {
  name XF1_PADMOUNT_BS_75;
  power_rating 75.00;
  powerA_rating 0.0;
  powerB_rating 75.00;
  powerC_rating 0.0;
  install_type PADMOUNT;
  connect_type SINGLE_PHASE_CENTER_TAPPED;
  primary_voltage 7200.0;
  secondary_voltage 120.0;
  resistance 0.00625;
  resistance1 0.01250;
  resistance2 0.01250;
  reactance 0.01352;
  reactance1 0.00676;
  reactance2 0.00676;
  shunt_resistance 238.10;
  shunt_reactance 67.11;
}
object transformer_configuration {
  name XF1_PADMOUNT_CS_50;
  power_rating 50.00;
  powerA_rating 0.0;
  powerB_rating 0.0;
  powerC_rating 50.00;
  install_type PADMOUNT;
  connect_type SINGLE_PHASE_CENTER_TAPPED;
  primary_voltage 7200.0;
  secondary_voltage 120.0;
  resistance 0.00650;
  resistance1 0.01300;
  resistance2 0.01300;
  reactance 0.01416;
  reactance1 0.00708;
  reactance2 0.00708;
  shunt_resistance 222.22;
  shunt_reactance 64.94;
}
object transformer_configuration {
  name XF1_PADMOUNT_AS_250;
  power_rating 250.00;
  powerA_rating 250.00;
  powerB_rating 0.0;
  powerC_rating 0.0;
  install_type PADMOUNT;
  connect_type SINGLE_PHASE_CENTER_TAPPED;
  primary_voltage 7200.0;
  secondary_voltage 120.0;
  resistance 0.00550;
  resistance1 0.01100;
  resistance2 0.01100;
  reactance 0.03080;
  reactance1 0.01540;
  reactance2 0.01540;
  shunt_resistance 277.78;
  shunt_reactance 55.25;
}
object transformer_configuration {
  name XF1_PADMOUNT_CS_250;
  power_rating 250.00;
  powerA_rating 0.0;
  powerB_rating 0.0;
  powerC_rating 250.00;
  install_type PADMOUNT;
  connect_type SINGLE_PHASE_CENTER_TAPPED;
  primary_voltage 7200.0;
  secondary_voltage 120.0;
  resistance 0.00550;
  resistance1 0.01100;
  resistance2 0.01100;
  reactance 0.03080;
  reactance1 0.01540;
  reactance2 0.01540;
  shunt_resistance 277.78;
  shunt_reactance 55.25;
}
object transformer_configuration {
  name XF1_PADMOUNT_AS_100;
  power_rating 100.00;
  powerA_rating 100.00;
  powerB_rating 0.0;
  powerC_rating 0.0;
  install_type PADMOUNT;
  connect_type SINGLE_PHASE_CENTER_TAPPED;
  primary_voltage 7200.0;
  secondary_voltage 120.0;
  resistance 0.00600;
  resistance1 0.01200;
  resistance2 0.01200;
  reactance 0.01752;
  reactance1 0.00876;
  reactance2 0.00876;
  shunt_resistance 250.00;
  shunt_reactance 68.97;
}
object transformer_configuration {
  name XF1_PADMOUNT_CS_100;
  power_rating 100.00;
  powerA_rating 0.0;
  powerB_rating 0.0;
  powerC_rating 100.00;
  install_type PADMOUNT;
  connect_type SINGLE_PHASE_CENTER_TAPPED;
  primary_voltage 7200.0;
  secondary_voltage 120.0;
  resistance 0.00600;
  resistance1 0.01200;
  resistance2 0.01200;
  reactance 0.01752;
  reactance1 0.00876;
  reactance2 0.00876;
  shunt_resistance 250.00;
  shunt_reactance 68.97;
}
object transformer_configuration {
  name XF1_PADMOUNT_AS_15;
  power_rating 15.00;
  powerA_rating 15.00;
  powerB_rating 0.0;
  powerC_rating 0.0;
  install_type PADMOUNT;
  connect_type SINGLE_PHASE_CENTER_TAPPED;
  primary_voltage 7200.0;
  secondary_voltage 120.0;
  resistance 0.00850;
  resistance1 0.01700;
  resistance2 0.01700;
  reactance 0.01176;
  reactance1 0.00588;
  reactance2 0.00588;
  shunt_resistance 166.67;
  shunt_reactance 39.53;
}
object transformer_configuration {
  name XF1_PADMOUNT_BS_25;
  power_rating 25.00;
  powerA_rating 0.0;
  powerB_rating 25.00;
  powerC_rating 0.0;
  install_type PADMOUNT;
  connect_type SINGLE_PHASE_CENTER_TAPPED;
  primary_voltage 7200.0;
  secondary_voltage 120.0;
  resistance 0.00800;
  resistance1 0.01600;
  resistance2 0.01600;
  reactance 0.01208;
  reactance1 0.00604;
  reactance2 0.00604;
  shunt_resistance 192.31;
  shunt_reactance 51.81;
}
object transformer_configuration {
  name XF1_PADMOUNT_CS_15;
  power_rating 15.00;
  powerA_rating 0.0;
  powerB_rating 0.0;
  powerC_rating 15.00;
  install_type PADMOUNT;
  connect_type SINGLE_PHASE_CENTER_TAPPED;
  primary_voltage 7200.0;
  secondary_voltage 120.0;
  resistance 0.00850;
  resistance1 0.01700;
  resistance2 0.01700;
  reactance 0.01176;
  reactance1 0.00588;
  reactance2 0.00588;
  shunt_resistance 166.67;
  shunt_reactance 39.53;
}
object transformer_configuration {
  name XF3_PADMOUNT_ABCN_112p5;
  power_rating 112.50;
  powerA_rating 37.50;
  powerB_rating 37.50;
  powerC_rating 37.50;
  install_type PADMOUNT;
  connect_type WYE_WYE;
  primary_voltage 12470.0;
  secondary_voltage 480.0;
  resistance 0.01450;
  reactance 0.02850;
  shunt_resistance 169.49;
  shunt_reactance 33.44;
}
object transformer_configuration {
  name XF3_PADMOUNT_ABCN_500;
  power_rating 500.00;
  powerA_rating 166.67;
  powerB_rating 166.67;
  powerC_rating 166.67;
  install_type PADMOUNT;
  connect_type WYE_WYE;
  primary_voltage 12470.0;
  secondary_voltage 480.0;
  resistance 0.01100;
  reactance 0.04880;
  shunt_resistance 222.22;
  shunt_reactance 44.25;
}
object transformer_configuration {
  name XF3_PADMOUNT_ABCN_300;
  power_rating 300.00;
  powerA_rating 100.00;
  powerB_rating 100.00;
  powerC_rating 100.00;
  install_type PADMOUNT;
  connect_type WYE_WYE;
  primary_voltage 12470.0;
  secondary_voltage 480.0;
  resistance 0.01300;
  reactance 0.04830;
  shunt_resistance 217.39;
  shunt_reactance 44.44;
}
object transformer_configuration {
  name XF3_PADMOUNT_ABCN_225;
  power_rating 225.00;
  powerA_rating 75.00;
  powerB_rating 75.00;
  powerC_rating 75.00;
  install_type PADMOUNT;
  connect_type WYE_WYE;
  primary_voltage 12470.0;
  secondary_voltage 480.0;
  resistance 0.01300;
  reactance 0.03520;
  shunt_resistance 200.00;
  shunt_reactance 40.00;
}
object transformer_configuration {
  name XF3_PADMOUNT_ABCN_150;
  power_rating 150.00;
  powerA_rating 50.00;
  powerB_rating 50.00;
  powerC_rating 50.00;
  install_type PADMOUNT;
  connect_type WYE_WYE;
  primary_voltage 12470.0;
  secondary_voltage 480.0;
  resistance 0.01300;
  reactance 0.03250;
  shunt_resistance 185.19;
  shunt_reactance 36.36;
}
object regulator_configuration {
  name feeder_reg_cfg;
  Control OUTPUT_VOLTAGE;
  band_center 7500.0;
  band_width 120;
  connect_type WYE_WYE;
  time_delay 30;
  raise_taps 16;
  lower_taps 16;
  regulation 0.10;
  tap_pos_A 0;
  tap_pos_B 0;
  tap_pos_C 0;
}
object line_spacing {
  name ID_55;
  distance_AB 52.0 in;
  distance_BC 52.0 in;
  distance_AC 52.0 in;
  distance_AN 72.0 in;
  distance_BN 72.0 in;
  distance_CN 72.0 in;
}
object line_spacing {
  name ID_56;
  distance_AN 72.0 in;
}
object line_spacing {
  name ID_57;
  distance_CN 72.0 in;
}
object line_configuration {
  name ID_48;
  conductor_A ID_877;
  conductor_B ID_877;
  conductor_C ID_877;
  conductor_N ID_877;
  spacing ID_55;
}
object line_configuration {
  name ID_49;
  conductor_A ID_878;
  conductor_B ID_878;
  conductor_C ID_878;
  conductor_N ID_878;
  spacing ID_55;
}
object line_configuration {
  name ID_50;
  conductor_A ID_879;
  conductor_B ID_879;
  conductor_C ID_879;
  conductor_N ID_879;
  spacing ID_55;
}
object line_configuration {
  name ID_51;
  conductor_A ID_879;
  conductor_N ID_879;
  spacing ID_56;
}
object line_configuration {
  name ID_52;
  conductor_C ID_879;
  conductor_N ID_879;
  spacing ID_57;
}
object line_configuration {
  name ID_53;
  conductor_A ID_878;
  conductor_N ID_878;
  spacing ID_56;
}
object line_configuration {
  name ID_54;
  conductor_C ID_878;
  conductor_N ID_878;
  spacing ID_57;
}
object triplex_line_conductor {
  name triplex_4/0 AA;
  resistance 0.48;
  geometric_mean_radius 0.0158;
  rating.summer.continuous 1000.0;
  rating.summer.emergency 1000.0;
  rating.winter.continuous 1000.0;
  rating.winter.emergency 1000.0;
}
object triplex_line_configuration {
  name ID_486;
  conductor_1 triplex_4/0 AA;
  conductor_2 triplex_4/0 AA;
  conductor_N triplex_4/0 AA;
  insulation_thickness 0.08;
  diameter 0.522;
}
object underground_line_conductor {
  name ID_877;
  rating.summer.continuous 775.0;
  outer_diameter 1.87;
  conductor_gmr 0.0371 ft;
  conductor_diameter 1.15;
  conductor_resistance 0.1162;
  shield_gmr 0.069167;
  shield_resistance 2.0135;
  shield_thickness 0.005;
  shield_diameter 1.66;
  insulation_relative_permitivitty 2.3;
}
object underground_line_conductor {
  name ID_878;
  rating.summer.continuous 488.0;
  outer_diameter 2.15;
  conductor_gmr 0.0371 ft;
  conductor_diameter 1.152;
  conductor_resistance 0.091872;
  neutral_gmr 0.00330 ft;
  neutral_resistance 5.9026;
  neutral_diameter 0.1019;
  neutral_strands 20.0;
  insulation_relative_permitivitty 2.3;
}
object underground_line_conductor {
  name ID_879;
  rating.summer.continuous 142.0;
  outer_diameter 1.27;
  conductor_gmr 0.01142 ft;
  conductor_diameter 0.362;
  conductor_resistance 0.88704;
  neutral_gmr 0.00208 ft;
  neutral_resistance 14.87;
  neutral_diameter 0.0641;
  neutral_strands 16.0;
  insulation_relative_permitivitty 2.3;
}
object fuse {
  name R1-12-47-4_fuse_1;
// downstream 67.77 kva on ABCS
  phases ABCN;
  from R1-12-47-4_node_10;
  to R1-12-47-4_node_169;
  current_limit 40;
  status CLOSED;
  mean_replacement_time 3600;
}
object fuse {
  name R1-12-47-4_fuse_2;
// downstream 27.07 kva on AS
  phases AN;
  from R1-12-47-4_node_21;
  to R1-12-47-4_node_287;
  current_limit 40;
  status CLOSED;
  mean_replacement_time 3600;
}
object fuse {
  name R1-12-47-4_fuse_3;
// downstream 18.14 kva on AS
  phases AN;
  from R1-12-47-4_node_24;
  to R1-12-47-4_node_288;
  current_limit 40;
  status CLOSED;
  mean_replacement_time 3600;
}
object fuse {
  name R1-12-47-4_fuse_4;
// downstream 27.83 kva on AS
  phases AN;
  from R1-12-47-4_node_27;
  to R1-12-47-4_node_289;
  current_limit 40;
  status CLOSED;
  mean_replacement_time 3600;
}
object fuse {
  name R1-12-47-4_fuse_5;
// downstream 22.95 kva on CS
  phases CN;
  from R1-12-47-4_node_38;
  to R1-12-47-4_node_290;
  current_limit 40;
  status CLOSED;
  mean_replacement_time 3600;
}
object fuse {
  name R1-12-47-4_fuse_6;
// downstream 26.66 kva on CS
  phases CN;
  from R1-12-47-4_node_41;
  to R1-12-47-4_node_291;
  current_limit 40;
  status CLOSED;
  mean_replacement_time 3600;
}
object fuse {
  name R1-12-47-4_fuse_7;
// downstream 21.57 kva on CS
  phases CN;
  from R1-12-47-4_node_43;
  to R1-12-47-4_node_292;
  current_limit 40;
  status CLOSED;
  mean_replacement_time 3600;
}
object fuse {
  name R1-12-47-4_fuse_8;
// downstream 18.48 kva on CS
  phases CN;
  from R1-12-47-4_node_50;
  to R1-12-47-4_node_293;
  current_limit 40;
  status CLOSED;
  mean_replacement_time 3600;
}
object fuse {
  name R1-12-47-4_fuse_9;
// downstream 66.14 kva on ABC
  phases ABCN;
  from R1-12-47-4_node_54;
  to R1-12-47-4_node_294;
  current_limit 40;
  status CLOSED;
  mean_replacement_time 3600;
}
object fuse {
  name R1-12-47-4_fuse_10;
// downstream 283.04 kva on ABC
  phases ABCN;
  from R1-12-47-4_node_55;
  to R1-12-47-4_node_295;
  current_limit 40;
  status CLOSED;
  mean_replacement_time 3600;
}
object fuse {
  name R1-12-47-4_fuse_11;
// downstream 194.07 kva on ABC
  phases ABCN;
  from R1-12-47-4_node_57;
  to R1-12-47-4_node_296;
  current_limit 40;
  status CLOSED;
  mean_replacement_time 3600;
}
object fuse {
  name R1-12-47-4_fuse_12;
// downstream 194.42 kva on ABCS
  phases ABCN;
  from R1-12-47-4_node_59;
  to R1-12-47-4_node_297;
  current_limit 40;
  status CLOSED;
  mean_replacement_time 3600;
}
object fuse {
  name R1-12-47-4_fuse_13;
// downstream 385.34 kva on ABCS
  phases ABCN;
  from R1-12-47-4_node_61;
  to R1-12-47-4_node_298;
  current_limit 65;
  status CLOSED;
  mean_replacement_time 3600;
}
object fuse {
  name R1-12-47-4_fuse_14;
// downstream 350.84 kva on ABCS
  phases ABCN;
  from R1-12-47-4_node_63;
  to R1-12-47-4_node_299;
  current_limit 65;
  status CLOSED;
  mean_replacement_time 3600;
}
object fuse {
  name R1-12-47-4_fuse_15;
// downstream 325.79 kva on ABCS
  phases ABCN;
  from R1-12-47-4_node_64;
  to R1-12-47-4_node_300;
  current_limit 40;
  status CLOSED;
  mean_replacement_time 3600;
}
object fuse {
  name R1-12-47-4_fuse_16;
// downstream 24.33 kva on AS
  phases AN;
  from R1-12-47-4_node_19;
  to R1-12-47-4_node_301;
  current_limit 40;
  status CLOSED;
  mean_replacement_time 3600;
}
object fuse {
  name R1-12-47-4_fuse_17;
// downstream 97.38 kva on AS
  phases AN;
  from R1-12-47-4_node_30;
  to R1-12-47-4_node_260;
  current_limit 40;
  status CLOSED;
  mean_replacement_time 3600;
}
object fuse {
  name R1-12-47-4_fuse_18;
// downstream 89.66 kva on CS
  phases CN;
  from R1-12-47-4_node_30;
  to R1-12-47-4_node_268;
  current_limit 40;
  status CLOSED;
  mean_replacement_time 3600;
}
object fuse {
  name R1-12-47-4_fuse_19;
// downstream 349.18 kva on ABC
  phases ABCN;
  from R1-12-47-4_node_30;
  to R1-12-47-4_node_274;
  current_limit 65;
  status CLOSED;
  mean_replacement_time 3600;
}
object fuse {
  name R1-12-47-4_fuse_20;
// downstream 194.07 kva on ABC
  phases ABCN;
  from R1-12-47-4_node_56;
  to R1-12-47-4_node_276;
  current_limit 40;
  status CLOSED;
  mean_replacement_time 3600;
}
object fuse {
  name R1-12-47-4_fuse_21;
// downstream 130.97 kva on ABCS
  phases ABCN;
  from R1-12-47-4_node_58;
  to R1-12-47-4_node_195;
  current_limit 40;
  status CLOSED;
  mean_replacement_time 3600;
}
object fuse {
  name R1-12-47-4_fuse_22;
// downstream 540.85 kva on ABCS
  phases ABCN;
  from R1-12-47-4_node_84;
  to R1-12-47-4_node_196;
  current_limit 65;
  status CLOSED;
  mean_replacement_time 3600;
}
object fuse {
  name R1-12-47-4_fuse_23;
// downstream 136.01 kva on ABC
  phases ABCN;
  from R1-12-47-4_node_87;
  to R1-12-47-4_node_197;
  current_limit 40;
  status CLOSED;
  mean_replacement_time 3600;
}
object fuse {
  name R1-12-47-4_fuse_24;
// downstream 217.18 kva on ABCS
  phases ABCN;
  from R1-12-47-4_node_91;
  to R1-12-47-4_node_198;
  current_limit 40;
  status CLOSED;
  mean_replacement_time 3600;
}
object fuse {
  name R1-12-47-4_fuse_25;
// downstream 170.51 kva on ABCS
  phases ABCN;
  from R1-12-47-4_node_93;
  to R1-12-47-4_node_199;
  current_limit 40;
  status CLOSED;
  mean_replacement_time 3600;
}
object fuse {
  name R1-12-47-4_fuse_26;
// downstream 387.69 kva on ABCS
  phases ABCN;
  from R1-12-47-4_node_170;
  to R1-12-47-4_node_73;
  current_limit 65;
  status CLOSED;
  mean_replacement_time 3600;
}
object fuse {
  name R1-12-47-4_fuse_27;
  phases ABCN;
  from R1-12-47-4_node_175;
  to R1-12-47-4_node_74;
  current_limit 50000;
  status CLOSED;
  mean_replacement_time 3600;
}
object fuse {
  name R1-12-47-4_fuse_28;
// downstream 1129.74 kva on ABCS
  phases ABCN;
  from R1-12-47-4_node_176;
  to R1-12-47-4_node_77;
  current_limit 200;
  status CLOSED;
  mean_replacement_time 3600;
}
object fuse {
  name R1-12-47-4_fuse_29;
// downstream 325.38 kva on ABCS
  phases ABCN;
  from R1-12-47-4_node_181;
  to R1-12-47-4_node_76;
  current_limit 40;
  status CLOSED;
  mean_replacement_time 3600;
}
object fuse {
  name R1-12-47-4_fuse_30;
// downstream 112.01 kva on ABC
  phases ABCN;
  from R1-12-47-4_node_120;
  to R1-12-47-4_node_224;
  current_limit 40;
  status CLOSED;
  mean_replacement_time 3600;
}
object fuse {
  name R1-12-47-4_fuse_31;
// downstream 115.71 kva on ABC
  phases ABCN;
  from R1-12-47-4_node_140;
  to R1-12-47-4_node_225;
  current_limit 40;
  status CLOSED;
  mean_replacement_time 3600;
}
object fuse {
  name R1-12-47-4_fuse_32;
  phases ABCN;
  from R1-12-47-4_node_144;
  to R1-12-47-4_node_226;
  current_limit 50000;
  status CLOSED;
  mean_replacement_time 3600;
}
object fuse {
  name R1-12-47-4_fuse_33;
// downstream 250.48 kva on ABC
  phases ABCN;
  from R1-12-47-4_node_111;
  to R1-12-47-4_node_227;
  current_limit 40;
  status CLOSED;
  mean_replacement_time 3600;
}
object fuse {
  name R1-12-47-4_fuse_34;
// downstream 94.78 kva on ABC
  phases ABCN;
  from R1-12-47-4_node_113;
  to R1-12-47-4_node_228;
  current_limit 40;
  status CLOSED;
  mean_replacement_time 3600;
}
object fuse {
  name R1-12-47-4_fuse_35;
// downstream 205.16 kva on ABC
  phases ABCN;
  from R1-12-47-4_node_115;
  to R1-12-47-4_node_229;
  current_limit 40;
  status CLOSED;
  mean_replacement_time 3600;
}
object fuse {
  name R1-12-47-4_fuse_36;
// downstream 151.96 kva on ABC
  phases ABCN;
  from R1-12-47-4_node_126;
  to R1-12-47-4_node_230;
  current_limit 40;
  status CLOSED;
  mean_replacement_time 3600;
}
object fuse {
  name R1-12-47-4_fuse_37;
// downstream 379.67 kva on ABC
  phases ABCN;
  from R1-12-47-4_node_204;
  to R1-12-47-4_node_107;
  current_limit 65;
  status CLOSED;
  mean_replacement_time 3600;
}
object fuse {
  name R1-12-47-4_fuse_38;
// downstream 550.41 kva on ABC
  phases ABCN;
  from R1-12-47-4_node_209;
  to R1-12-47-4_node_106;
  current_limit 65;
  status CLOSED;
  mean_replacement_time 3600;
}
object fuse {
  name R1-12-47-4_fuse_39;
// downstream 376.49 kva on ABCS
  phases ABCN;
  from R1-12-47-4_node_153;
  to R1-12-47-4_node_237;
  current_limit 65;
  status CLOSED;
  mean_replacement_time 3600;
}
object fuse {
  name R1-12-47-4_fuse_40;
// downstream 676.85 kva on ABCS
  phases ABCN;
  from R1-12-47-4_node_101;
  to R1-12-47-4_node_235;
  current_limit 100;
  status CLOSED;
  mean_replacement_time 3600;
}
object fuse {
  name R1-12-47-4_fuse_41;
// downstream 38.17 kva on ABCS
  phases ABCN;
  from R1-12-47-4_node_157;
  to R1-12-47-4_node_247;
  current_limit 40;
  status CLOSED;
  mean_replacement_time 3600;
}
object fuse {
  name R1-12-47-4_fuse_42;
  phases ABCN;
  from R1-12-47-4_node_159;
  to R1-12-47-4_node_248;
  current_limit 50000;
  status CLOSED;
  mean_replacement_time 3600;
}
object fuse {
  name R1-12-47-4_fuse_43;
// downstream 182.45 kva on ABC
  phases ABCN;
  from R1-12-47-4_node_162;
  to R1-12-47-4_node_249;
  current_limit 40;
  status CLOSED;
  mean_replacement_time 3600;
}
object fuse {
  name R1-12-47-4_fuse_44;
// downstream 155.88 kva on ABC
  phases ABCN;
  from R1-12-47-4_node_164;
  to R1-12-47-4_node_250;
  current_limit 40;
  status CLOSED;
  mean_replacement_time 3600;
}
object switch {
  name R1-12-47-4_switch_1;
  phases ABCN;
  from R1-12-47-4_node_4;
  to R1-12-47-4_node_5;
  status CLOSED;
}
object switch {
  name R1-12-47-4_switch_2;
// downstream 325.79 kva on ABCS
  phases ABCN;
  from R1-12-47-4_node_10;
  to R1-12-47-4_node_167;
  status CLOSED;
}
object switch {
  name R1-12-47-4_switch_3;
  phases ABCN;
  from R1-12-47-4_node_275;
  to R1-12-47-4_node_68;
  status CLOSED;
}
object switch {
  name R1-12-47-4_switch_4;
  phases AN;
  from R1-12-47-4_node_251;
  to R1-12-47-4_node_13;
  status CLOSED;
}
object switch {
  name R1-12-47-4_switch_5;
  phases CN;
  from R1-12-47-4_node_286;
  to R1-12-47-4_node_31;
  status CLOSED;
}
object switch {
  name R1-12-47-4_switch_6;
  phases ABCN;
  from R1-12-47-4_node_194;
  to R1-12-47-4_node_102;
  status CLOSED;
}
object switch {
  name R1-12-47-4_switch_7;
  phases ABCN;
  from R1-12-47-4_node_193;
  to R1-12-47-4_node_96;
  status CLOSED;
}
object switch {
  name R1-12-47-4_switch_8;
  phases ABCN;
  from R1-12-47-4_node_182;
  to R1-12-47-4_node_303;
  status CLOSED;
}
object switch {
  name R1-12-47-4_switch_9;
// downstream 387.69 kva on ABCS
  phases ABCN;
  from R1-12-47-4_node_72;
  to R1-12-47-4_node_172;
  status CLOSED;
}
object switch {
  name R1-12-47-4_switch_10;
  phases ABCN;
  from R1-12-47-4_node_173;
  to R1-12-47-4_node_71;
  status CLOSED;
}
object switch {
  name R1-12-47-4_switch_11;
// downstream 387.69 kva on ABCS
  phases ABCN;
  from R1-12-47-4_node_178;
  to R1-12-47-4_node_78;
  status CLOSED;
}
object switch {
  name R1-12-47-4_switch_12;
// downstream 1842.82 kva on ABCS
  phases ABCN;
  from R1-12-47-4_node_75;
  to R1-12-47-4_node_179;
  status CLOSED;
}
object switch {
  name R1-12-47-4_switch_13;
// downstream 3626.46 kva on ABCS
  phases ABCN;
  from R1-12-47-4_node_222;
  to R1-12-47-4_node_56;
  status CLOSED;
}
object switch {
  name R1-12-47-4_switch_14;
// downstream 912.72 kva on ABCS
  phases ABCN;
  from R1-12-47-4_node_8;
  to R1-12-47-4_node_7;
  status CLOSED;
}
object switch {
  name R1-12-47-4_switch_15;
  phases ABCN;
  from R1-12-47-4_node_115;
  to R1-12-47-4_node_214;
  status CLOSED;
}
object switch {
  name R1-12-47-4_switch_16;
// downstream 3626.46 kva on ABCS
  phases ABCN;
  from R1-12-47-4_node_206;
  to R1-12-47-4_node_108;
  status CLOSED;
}
object switch {
  name R1-12-47-4_switch_17;
// downstream 4556.55 kva on ABCS
  phases ABCN;
  from R1-12-47-4_node_109;
  to R1-12-47-4_node_207;
  status CLOSED;
}
object switch {
  name R1-12-47-4_switch_18;
  phases ABCN;
  from R1-12-47-4_node_166;
  to R1-12-47-4_node_236;
  status CLOSED;
}
object switch {
  name R1-12-47-4_switch_19;
// downstream 1842.82 kva on ABCS
  phases ABCN;
  from R1-12-47-4_node_101;
  to R1-12-47-4_node_234;
  status CLOSED;
}
object switch {
  name R1-12-47-4_switch_20;
  phases ABCN;
  from R1-12-47-4_node_302;
  to R1-12-47-4_node_232;
  status CLOSED;
}
object switch {
  name R1-12-47-4_switch_21;
  phases ABCN;
  from R1-12-47-4_node_1;
  to R1-12-47-4_node_233;
  status CLOSED;
}
object underground_line {
  name R1-12-47-4_ul_1;
  phases ABCN;
  from R1-12-47-4_node_302;
  to R1-12-47-4_node_3;
  length 1.000;
  configuration ID_48;
}
object underground_line {
  name R1-12-47-4_ul_2;
  phases ABCN;
  from R1-12-47-4_node_149;
  to R1-12-47-4_node_1;
  length 5.000;
  configuration ID_49;
}
object underground_line {
  name R1-12-47-4_ul_3;
// downstream 376.49 kva on ABCS
  phases ABCN;
  from R1-12-47-4_node_6;
  to R1-12-47-4_node_147;
  length 130.000;
  configuration ID_49;
}
object underground_line {
  name R1-12-47-4_ul_4;
// downstream 325.79 kva on ABCS
  phases ABCN;
  from R1-12-47-4_node_167;
  to R1-12-47-4_node_9;
  length 352.000;
  configuration ID_50;
}
object underground_line {
  name R1-12-47-4_ul_5;
// downstream 393.56 kva on ABCS
  phases ABCN;
  from R1-12-47-4_node_11;
  to R1-12-47-4_node_168;
  length 364.000;
  configuration ID_50;
}
object underground_line {
  name R1-12-47-4_ul_6;
// downstream 393.56 kva on ABCS
  phases ABCN;
  from R1-12-47-4_node_168;
  to R1-12-47-4_node_10;
  length 1.000;
  configuration ID_49;
}
object underground_line {
  name R1-12-47-4_ul_7;
  phases AN;
  from R1-12-47-4_node_18;
  to R1-12-47-4_node_17;
  length 224.000;
  configuration ID_51;
}
object underground_line {
  name R1-12-47-4_ul_8;
// downstream 51.40 kva on AS
  phases AN;
  from R1-12-47-4_node_22;
  to R1-12-47-4_node_255;
  length 473.000;
  configuration ID_51;
}
object underground_line {
  name R1-12-47-4_ul_9;
// downstream 97.38 kva on AS
  phases AN;
  from R1-12-47-4_node_260;
  to R1-12-47-4_node_29;
  length 57.000;
  configuration ID_51;
}
object underground_line {
  name R1-12-47-4_ul_10;
  phases CN;
  from R1-12-47-4_node_36;
  to R1-12-47-4_node_35;
  length 233.000;
  configuration ID_52;
}
object underground_line {
  name R1-12-47-4_ul_11;
// downstream 89.66 kva on CS
  phases CN;
  from R1-12-47-4_node_268;
  to R1-12-47-4_node_53;
  length 53.000;
  configuration ID_52;
}
object underground_line {
  name R1-12-47-4_ul_12;
// downstream 349.18 kva on ABC
  phases ABCN;
  from R1-12-47-4_node_274;
  to R1-12-47-4_node_273;
  length 173.000;
  configuration ID_50;
}
object underground_line {
  name R1-12-47-4_ul_13;
// downstream 194.07 kva on ABC
  phases ABCN;
  from R1-12-47-4_node_276;
  to R1-12-47-4_node_277;
  length 286.000;
  configuration ID_50;
}
object underground_line {
  name R1-12-47-4_ul_14;
// downstream 393.56 kva on ABCS
  phases ABCN;
  from R1-12-47-4_node_283;
  to R1-12-47-4_node_11;
  length 256.000;
  configuration ID_50;
}
object underground_line {
  name R1-12-47-4_ul_15;
  phases CN;
  from R1-12-47-4_node_38;
  to R1-12-47-4_node_261;
  length 1.000;
  configuration ID_54;
}
object underground_line {
  name R1-12-47-4_ul_16;
// downstream 22.95 kva on CS
  phases CN;
  from R1-12-47-4_node_262;
  to R1-12-47-4_node_38;
  length 1.000;
  configuration ID_54;
}
object underground_line {
  name R1-12-47-4_ul_17;
// downstream 22.95 kva on CS
  phases CN;
  from R1-12-47-4_node_41;
  to R1-12-47-4_node_263;
  length 1.000;
  configuration ID_54;
}
object underground_line {
  name R1-12-47-4_ul_18;
// downstream 49.61 kva on CS
  phases CN;
  from R1-12-47-4_node_264;
  to R1-12-47-4_node_41;
  length 1.000;
  configuration ID_54;
}
object underground_line {
  name R1-12-47-4_ul_19;
  phases AN;
  from R1-12-47-4_node_14;
  to R1-12-47-4_node_251;
  length 133.000;
  configuration ID_51;
}
object underground_line {
  name R1-12-47-4_ul_20;
  phases AN;
  from R1-12-47-4_node_15;
  to R1-12-47-4_node_14;
  length 69.000;
  configuration ID_51;
}
object underground_line {
  name R1-12-47-4_ul_21;
  phases AN;
  from R1-12-47-4_node_16;
  to R1-12-47-4_node_15;
  length 227.000;
  configuration ID_51;
}
object underground_line {
  name R1-12-47-4_ul_22;
  phases AN;
  from R1-12-47-4_node_17;
  to R1-12-47-4_node_16;
  length 65.000;
  configuration ID_51;
}
object underground_line {
  name R1-12-47-4_ul_23;
  phases AN;
  from R1-12-47-4_node_252;
  to R1-12-47-4_node_18;
  length 80.000;
  configuration ID_51;
}
object underground_line {
  name R1-12-47-4_ul_24;
// downstream 24.33 kva on AS
  phases AN;
  from R1-12-47-4_node_20;
  to R1-12-47-4_node_253;
  length 80.000;
  configuration ID_51;
}
object underground_line {
  name R1-12-47-4_ul_25;
// downstream 24.33 kva on AS
  phases AN;
  from R1-12-47-4_node_254;
  to R1-12-47-4_node_20;
  length 296.000;
  configuration ID_51;
}
object underground_line {
  name R1-12-47-4_ul_26;
// downstream 51.40 kva on AS
  phases AN;
  from R1-12-47-4_node_23;
  to R1-12-47-4_node_22;
  length 71.000;
  configuration ID_51;
}
object underground_line {
  name R1-12-47-4_ul_27;
// downstream 51.40 kva on AS
  phases AN;
  from R1-12-47-4_node_256;
  to R1-12-47-4_node_23;
  length 174.000;
  configuration ID_51;
}
object underground_line {
  name R1-12-47-4_ul_28;
// downstream 69.55 kva on AS
  phases AN;
  from R1-12-47-4_node_25;
  to R1-12-47-4_node_257;
  length 155.000;
  configuration ID_51;
}
object underground_line {
  name R1-12-47-4_ul_29;
// downstream 69.55 kva on AS
  phases AN;
  from R1-12-47-4_node_26;
  to R1-12-47-4_node_25;
  length 70.000;
  configuration ID_51;
}
object underground_line {
  name R1-12-47-4_ul_30;
// downstream 69.55 kva on AS
  phases AN;
  from R1-12-47-4_node_258;
  to R1-12-47-4_node_26;
  length 31.000;
  configuration ID_51;
}
object underground_line {
  name R1-12-47-4_ul_31;
// downstream 97.38 kva on AS
  phases AN;
  from R1-12-47-4_node_28;
  to R1-12-47-4_node_259;
  length 339.000;
  configuration ID_51;
}
object underground_line {
  name R1-12-47-4_ul_32;
// downstream 97.38 kva on AS
  phases AN;
  from R1-12-47-4_node_29;
  to R1-12-47-4_node_28;
  length 53.000;
  configuration ID_51;
}
object underground_line {
  name R1-12-47-4_ul_33;
  phases CN;
  from R1-12-47-4_node_33;
  to R1-12-47-4_node_32;
  length 63.000;
  configuration ID_52;
}
object underground_line {
  name R1-12-47-4_ul_34;
  phases CN;
  from R1-12-47-4_node_34;
  to R1-12-47-4_node_33;
  length 209.000;
  configuration ID_52;
}
object underground_line {
  name R1-12-47-4_ul_35;
  phases CN;
  from R1-12-47-4_node_35;
  to R1-12-47-4_node_34;
  length 55.000;
  configuration ID_52;
}
object underground_line {
  name R1-12-47-4_ul_36;
  phases CN;
  from R1-12-47-4_node_37;
  to R1-12-47-4_node_36;
  length 52.000;
  configuration ID_52;
}
object underground_line {
  name R1-12-47-4_ul_37;
  phases CN;
  from R1-12-47-4_node_261;
  to R1-12-47-4_node_37;
  length 112.000;
  configuration ID_52;
}
object underground_line {
  name R1-12-47-4_ul_38;
// downstream 22.95 kva on CS
  phases CN;
  from R1-12-47-4_node_39;
  to R1-12-47-4_node_262;
  length 99.000;
  configuration ID_52;
}
object underground_line {
  name R1-12-47-4_ul_39;
// downstream 22.95 kva on CS
  phases CN;
  from R1-12-47-4_node_40;
  to R1-12-47-4_node_39;
  length 51.000;
  configuration ID_52;
}
object underground_line {
  name R1-12-47-4_ul_40;
// downstream 22.95 kva on CS
  phases CN;
  from R1-12-47-4_node_263;
  to R1-12-47-4_node_40;
  length 288.000;
  configuration ID_52;
}
object underground_line {
  name R1-12-47-4_ul_41;
// downstream 49.61 kva on CS
  phases CN;
  from R1-12-47-4_node_42;
  to R1-12-47-4_node_264;
  length 549.000;
  configuration ID_52;
}
object underground_line {
  name R1-12-47-4_ul_42;
// downstream 71.18 kva on CS
  phases CN;
  from R1-12-47-4_node_44;
  to R1-12-47-4_node_265;
  length 72.000;
  configuration ID_52;
}
object underground_line {
  name R1-12-47-4_ul_43;
// downstream 71.18 kva on CS
  phases CN;
  from R1-12-47-4_node_45;
  to R1-12-47-4_node_44;
  length 52.000;
  configuration ID_52;
}
object underground_line {
  name R1-12-47-4_ul_44;
// downstream 71.18 kva on CS
  phases CN;
  from R1-12-47-4_node_46;
  to R1-12-47-4_node_45;
  length 66.000;
  configuration ID_52;
}
object underground_line {
  name R1-12-47-4_ul_45;
// downstream 71.18 kva on CS
  phases CN;
  from R1-12-47-4_node_47;
  to R1-12-47-4_node_46;
  length 343.000;
  configuration ID_52;
}
object underground_line {
  name R1-12-47-4_ul_46;
// downstream 71.18 kva on CS
  phases CN;
  from R1-12-47-4_node_49;
  to R1-12-47-4_node_48;
  length 68.000;
  configuration ID_52;
}
object underground_line {
  name R1-12-47-4_ul_47;
// downstream 71.18 kva on CS
  phases CN;
  from R1-12-47-4_node_266;
  to R1-12-47-4_node_49;
  length 77.000;
  configuration ID_52;
}
object underground_line {
  name R1-12-47-4_ul_48;
// downstream 89.66 kva on CS
  phases CN;
  from R1-12-47-4_node_51;
  to R1-12-47-4_node_267;
  length 75.000;
  configuration ID_52;
}
object underground_line {
  name R1-12-47-4_ul_49;
// downstream 89.66 kva on CS
  phases CN;
  from R1-12-47-4_node_53;
  to R1-12-47-4_node_52;
  length 50.000;
  configuration ID_52;
}
object underground_line {
  name R1-12-47-4_ul_50;
  phases ABCN;
  from R1-12-47-4_node_270;
  to R1-12-47-4_node_269;
  length 375.000;
  configuration ID_50;
}
object underground_line {
  name R1-12-47-4_ul_51;
// downstream 66.14 kva on ABC
  phases ABCN;
  from R1-12-47-4_node_272;
  to R1-12-47-4_node_271;
  length 218.000;
  configuration ID_50;
}
object underground_line {
  name R1-12-47-4_ul_52;
// downstream 536.22 kva on ABCS
  phases ABCN;
  from R1-12-47-4_node_65;
  to R1-12-47-4_node_66;
  length 350.000;
  configuration ID_49;
}
object underground_line {
  name R1-12-47-4_ul_53;
// downstream 536.22 kva on ABCS
  phases ABCN;
  from R1-12-47-4_node_66;
  to R1-12-47-4_node_30;
  length 311.000;
  configuration ID_49;
}
object underground_line {
  name R1-12-47-4_ul_54;
  phases ABCN;
  from R1-12-47-4_node_30;
  to R1-12-47-4_node_67;
  length 326.000;
  configuration ID_49;
}
object underground_line {
  name R1-12-47-4_ul_55;
  phases ABCN;
  from R1-12-47-4_node_67;
  to R1-12-47-4_node_275;
  length 327.000;
  configuration ID_49;
}
object underground_line {
  name R1-12-47-4_ul_56;
  phases ABCN;
  from R1-12-47-4_node_68;
  to R1-12-47-4_node_69;
  length 326.000;
  configuration ID_49;
}
object underground_line {
  name R1-12-47-4_ul_57;
  phases ABCN;
  from R1-12-47-4_node_69;
  to R1-12-47-4_node_70;
  length 318.000;
  configuration ID_49;
}
object underground_line {
  name R1-12-47-4_ul_58;
  phases ABCN;
  from R1-12-47-4_node_70;
  to R1-12-47-4_node_12;
  length 311.000;
  configuration ID_49;
}
object underground_line {
  name R1-12-47-4_ul_59;
// downstream 130.97 kva on ABCS
  phases ABCN;
  from R1-12-47-4_node_279;
  to R1-12-47-4_node_278;
  length 306.000;
  configuration ID_50;
}
object underground_line {
  name R1-12-47-4_ul_60;
// downstream 1129.74 kva on ABCS
  phases ABCN;
  from R1-12-47-4_node_60;
  to R1-12-47-4_node_280;
  length 231.000;
  configuration ID_50;
}
object underground_line {
  name R1-12-47-4_ul_61;
// downstream 744.40 kva on ABCS
  phases ABCN;
  from R1-12-47-4_node_281;
  to R1-12-47-4_node_62;
  length 340.000;
  configuration ID_50;
}
object underground_line {
  name R1-12-47-4_ul_62;
// downstream 744.40 kva on ABCS
  phases ABCN;
  from R1-12-47-4_node_62;
  to R1-12-47-4_node_282;
  length 360;
  configuration ID_50;
}
object underground_line {
  name R1-12-47-4_ul_63;
// downstream 325.79 kva on ABCS
  phases ABCN;
  from R1-12-47-4_node_9;
  to R1-12-47-4_node_284;
  length 277.000;
  configuration ID_50;
}
object underground_line {
  name R1-12-47-4_ul_64;
// downstream 49.61 kva on CS
  phases CN;
  from R1-12-47-4_node_285;
  to R1-12-47-4_node_42;
  length 72.000;
  configuration ID_52;
}
object underground_line {
  name R1-12-47-4_ul_65;
  phases CN;
  from R1-12-47-4_node_32;
  to R1-12-47-4_node_286;
  length 109.000;
  configuration ID_52;
}
object underground_line {
  name R1-12-47-4_ul_66;
// downstream 71.18 kva on CS
  phases CN;
  from R1-12-47-4_node_48;
  to R1-12-47-4_node_47;
  length 72.000;
  configuration ID_52;
}
object underground_line {
  name R1-12-47-4_ul_67;
// downstream 89.66 kva on CS
  phases CN;
  from R1-12-47-4_node_52;
  to R1-12-47-4_node_51;
  length 394.000;
  configuration ID_52;
}
object underground_line {
  name R1-12-47-4_ul_68;
// downstream 71.18 kva on CS
  phases CN;
  from R1-12-47-4_node_265;
  to R1-12-47-4_node_43;
  length 1.000;
  configuration ID_54;
}
object underground_line {
  name R1-12-47-4_ul_69;
// downstream 49.61 kva on CS
  phases CN;
  from R1-12-47-4_node_43;
  to R1-12-47-4_node_285;
  length 1.000;
  configuration ID_54;
}
object underground_line {
  name R1-12-47-4_ul_70;
// downstream 71.18 kva on CS
  phases CN;
  from R1-12-47-4_node_50;
  to R1-12-47-4_node_266;
  length 1.000;
  configuration ID_54;
}
object underground_line {
  name R1-12-47-4_ul_71;
// downstream 89.66 kva on CS
  phases CN;
  from R1-12-47-4_node_267;
  to R1-12-47-4_node_50;
  length 1.000;
  configuration ID_54;
}
object underground_line {
  name R1-12-47-4_ul_72;
// downstream 97.38 kva on AS
  phases AN;
  from R1-12-47-4_node_259;
  to R1-12-47-4_node_27;
  length 1.000;
  configuration ID_53;
}
object underground_line {
  name R1-12-47-4_ul_73;
// downstream 69.55 kva on AS
  phases AN;
  from R1-12-47-4_node_27;
  to R1-12-47-4_node_258;
  length 1.000;
  configuration ID_53;
}
object underground_line {
  name R1-12-47-4_ul_74;
// downstream 51.40 kva on AS
  phases AN;
  from R1-12-47-4_node_24;
  to R1-12-47-4_node_256;
  length 1.000;
  configuration ID_53;
}
object underground_line {
  name R1-12-47-4_ul_75;
// downstream 69.55 kva on AS
  phases AN;
  from R1-12-47-4_node_257;
  to R1-12-47-4_node_24;
  length 1.000;
  configuration ID_53;
}
object underground_line {
  name R1-12-47-4_ul_76;
// downstream 51.40 kva on AS
  phases AN;
  from R1-12-47-4_node_255;
  to R1-12-47-4_node_21;
  length 1.000;
  configuration ID_53;
}
object underground_line {
  name R1-12-47-4_ul_77;
// downstream 24.33 kva on AS
  phases AN;
  from R1-12-47-4_node_21;
  to R1-12-47-4_node_254;
  length 1.000;
  configuration ID_53;
}
object underground_line {
  name R1-12-47-4_ul_78;
  phases AN;
  from R1-12-47-4_node_19;
  to R1-12-47-4_node_252;
  length 1.000;
  configuration ID_53;
}
object underground_line {
  name R1-12-47-4_ul_79;
// downstream 24.33 kva on AS
  phases AN;
  from R1-12-47-4_node_253;
  to R1-12-47-4_node_19;
  length 1.000;
  configuration ID_53;
}
object underground_line {
  name R1-12-47-4_ul_80;
// downstream 393.56 kva on ABCS
  phases ABCN;
  from R1-12-47-4_node_63;
  to R1-12-47-4_node_283;
  length 1.000;
  configuration ID_49;
}
object underground_line {
  name R1-12-47-4_ul_81;
// downstream 744.40 kva on ABCS
  phases ABCN;
  from R1-12-47-4_node_282;
  to R1-12-47-4_node_63;
  length 1.000;
  configuration ID_49;
}
object underground_line {
  name R1-12-47-4_ul_82;
// downstream 744.40 kva on ABCS
  phases ABCN;
  from R1-12-47-4_node_61;
  to R1-12-47-4_node_281;
  length 1.000;
  configuration ID_49;
}
object underground_line {
  name R1-12-47-4_ul_83;
// downstream 1129.74 kva on ABCS
  phases ABCN;
  from R1-12-47-4_node_280;
  to R1-12-47-4_node_61;
  length 1.000;
  configuration ID_49;
}
object underground_line {
  name R1-12-47-4_ul_84;
// downstream 130.97 kva on ABCS
  phases ABCN;
  from R1-12-47-4_node_59;
  to R1-12-47-4_node_279;
  length 1.000;
  configuration ID_49;
}
object underground_line {
  name R1-12-47-4_ul_85;
// downstream 194.07 kva on ABC
  phases ABCN;
  from R1-12-47-4_node_277;
  to R1-12-47-4_node_57;
  length 1.000;
  configuration ID_49;
}
object underground_line {
  name R1-12-47-4_ul_86;
// downstream 349.18 kva on ABC
  phases ABCN;
  from R1-12-47-4_node_273;
  to R1-12-47-4_node_55;
  length 1.000;
  configuration ID_49;
}
object underground_line {
  name R1-12-47-4_ul_87;
// downstream 66.14 kva on ABC
  phases ABCN;
  from R1-12-47-4_node_271;
  to R1-12-47-4_node_54;
  length 1.000;
  configuration ID_49;
}
object underground_line {
  name R1-12-47-4_ul_88;
// downstream 66.14 kva on ABC
  phases ABCN;
  from R1-12-47-4_node_55;
  to R1-12-47-4_node_272;
  length 1.000;
  configuration ID_49;
}
object underground_line {
  name R1-12-47-4_ul_89;
  phases ABCN;
  from R1-12-47-4_node_54;
  to R1-12-47-4_node_270;
  length 1.000;
  configuration ID_49;
}
object underground_line {
  name R1-12-47-4_ul_90;
// downstream 325.79 kva on ABCS
  phases ABCN;
  from R1-12-47-4_node_284;
  to R1-12-47-4_node_64;
  length 1.000;
  configuration ID_49;
}
object underground_line {
  name R1-12-47-4_ul_91;
// downstream 130.97 kva on ABCS
  phases ABCN;
  from R1-12-47-4_node_278;
  to R1-12-47-4_node_58;
  length 1.000;
  configuration ID_49;
}
object underground_line {
  name R1-12-47-4_ul_92;
  phases ABCN;
  from R1-12-47-4_node_81;
  to R1-12-47-4_node_182;
  length 259.000;
  configuration ID_50;
}
object underground_line {
  name R1-12-47-4_ul_93;
// downstream 387.69 kva on ABCS
  phases ABCN;
  from R1-12-47-4_node_78;
  to R1-12-47-4_node_79;
  length 557.000;
  configuration ID_49;
}
object underground_line {
  name R1-12-47-4_ul_94;
  phases ABCN;
  from R1-12-47-4_node_82;
  to R1-12-47-4_node_81;
  length 172.000;
  configuration ID_50;
}
object underground_line {
  name R1-12-47-4_ul_95;
  phases ABCN;
  from R1-12-47-4_node_83;
  to R1-12-47-4_node_82;
  length 288.000;
  configuration ID_50;
}
object underground_line {
  name R1-12-47-4_ul_96;
  phases ABCN;
  from R1-12-47-4_node_183;
  to R1-12-47-4_node_83;
  length 351.000;
  configuration ID_50;
}
object underground_line {
  name R1-12-47-4_ul_97;
// downstream 540.85 kva on ABCS
  phases ABCN;
  from R1-12-47-4_node_86;
  to R1-12-47-4_node_85;
  length 301.000;
  configuration ID_50;
}
object underground_line {
  name R1-12-47-4_ul_98;
// downstream 540.85 kva on ABCS
  phases ABCN;
  from R1-12-47-4_node_185;
  to R1-12-47-4_node_86;
  length 22.000;
  configuration ID_50;
}
object underground_line {
  name R1-12-47-4_ul_99;
// downstream 676.85 kva on ABCS
  phases ABCN;
  from R1-12-47-4_node_88;
  to R1-12-47-4_node_186;
  length 13.000;
  configuration ID_50;
}
object underground_line {
  name R1-12-47-4_ul_100;
// downstream 325.38 kva on ABCS
  phases ABCN;
  from R1-12-47-4_node_76;
  to R1-12-47-4_node_89;
  length 430.000;
  configuration ID_50;
}
object underground_line {
  name R1-12-47-4_ul_101;
// downstream 387.69 kva on ABCS
  phases ABCN;
  from R1-12-47-4_node_80;
  to R1-12-47-4_node_72;
  length 225.000;
  configuration ID_49;
}
object underground_line {
  name R1-12-47-4_ul_102;
// downstream 387.69 kva on ABCS
  phases ABCN;
  from R1-12-47-4_node_90;
  to R1-12-47-4_node_187;
  length 356.000;
  configuration ID_50;
}
object underground_line {
  name R1-12-47-4_ul_103;
// downstream 170.51 kva on ABCS
  phases ABCN;
  from R1-12-47-4_node_188;
  to R1-12-47-4_node_92;
  length 332.000;
  configuration ID_50;
}
object underground_line {
  name R1-12-47-4_ul_104;
// downstream 170.51 kva on ABCS
  phases ABCN;
  from R1-12-47-4_node_92;
  to R1-12-47-4_node_190;
  length 334.000;
  configuration ID_50;
}
object underground_line {
  name R1-12-47-4_ul_105;
  phases ABCN;
  from R1-12-47-4_node_191;
  to R1-12-47-4_node_94;
  length 250.000;
  configuration ID_50;
}
object underground_line {
  name R1-12-47-4_ul_106;
  phases ABCN;
  from R1-12-47-4_node_94;
  to R1-12-47-4_node_192;
  length 393.000;
  configuration ID_50;
}
object underground_line {
  name R1-12-47-4_ul_107;
  phases ABCN;
  from R1-12-47-4_node_74;
  to R1-12-47-4_node_95;
  length 134.000;
  configuration ID_50;
}
object underground_line {
  name R1-12-47-4_ul_108;
// downstream 1842.82 kva on ABCS
  phases ABCN;
  from R1-12-47-4_node_97;
  to R1-12-47-4_node_75;
  length 452.000;
  configuration ID_49;
}
object underground_line {
  name R1-12-47-4_ul_109;
// downstream 1842.82 kva on ABCS
  phases ABCN;
  from R1-12-47-4_node_98;
  to R1-12-47-4_node_97;
  length 191.000;
  configuration ID_49;
}
object underground_line {
  name R1-12-47-4_ul_110;
  phases ABCN;
  from R1-12-47-4_node_101;
  to R1-12-47-4_node_194;
  length 319.000;
  configuration ID_49;
}
object underground_line {
  name R1-12-47-4_ul_111;
// downstream 1842.82 kva on ABCS
  phases ABCN;
  from R1-12-47-4_node_99;
  to R1-12-47-4_node_98;
  length 280.000;
  configuration ID_49;
}
object underground_line {
  name R1-12-47-4_ul_112;
// downstream 387.69 kva on ABCS
  phases ABCN;
  from R1-12-47-4_node_79;
  to R1-12-47-4_node_80;
  length 558.000;
  configuration ID_49;
}
object underground_line {
  name R1-12-47-4_ul_113;
// downstream 1129.74 kva on ABCS
  phases ABCN;
  from R1-12-47-4_node_77;
  to R1-12-47-4_node_60;
  length 127.000;
  configuration ID_50;
}
object underground_line {
  name R1-12-47-4_ul_114;
// downstream 540.85 kva on ABCS
  phases ABCN;
  from R1-12-47-4_node_85;
  to R1-12-47-4_node_184;
  length 339.000;
  configuration ID_50;
}
object underground_line {
  name R1-12-47-4_ul_115;
// downstream 387.69 kva on ABCS
  phases ABCN;
  from R1-12-47-4_node_73;
  to R1-12-47-4_node_90;
  length 223.000;
  configuration ID_50;
}
object underground_line {
  name R1-12-47-4_ul_116;
// downstream 325.38 kva on ABCS
  phases ABCN;
  from R1-12-47-4_node_89;
  to R1-12-47-4_node_189;
  length 566.000;
  configuration ID_50;
}
object underground_line {
  name R1-12-47-4_ul_117;
  phases ABCN;
  from R1-12-47-4_node_95;
  to R1-12-47-4_node_193;
  length 126.000;
  configuration ID_50;
}
object underground_line {
  name R1-12-47-4_ul_118;
// downstream 1842.82 kva on ABCS
  phases ABCN;
  from R1-12-47-4_node_100;
  to R1-12-47-4_node_99;
  length 302.000;
  configuration ID_49;
}
object underground_line {
  name R1-12-47-4_ul_119;
  phases ABCN;
  from R1-12-47-4_node_93;
  to R1-12-47-4_node_191;
  length 1.000;
  configuration ID_49;
}
object underground_line {
  name R1-12-47-4_ul_120;
// downstream 170.51 kva on ABCS
  phases ABCN;
  from R1-12-47-4_node_190;
  to R1-12-47-4_node_93;
  length 1.000;
  configuration ID_49;
}
object underground_line {
  name R1-12-47-4_ul_121;
// downstream 387.69 kva on ABCS
  phases ABCN;
  from R1-12-47-4_node_187;
  to R1-12-47-4_node_91;
  length 1.000;
  configuration ID_49;
}
object underground_line {
  name R1-12-47-4_ul_122;
  phases ABCN;
  from R1-12-47-4_node_84;
  to R1-12-47-4_node_183;
  length 1.000;
  configuration ID_49;
}
object underground_line {
  name R1-12-47-4_ul_123;
// downstream 540.85 kva on ABCS
  phases ABCN;
  from R1-12-47-4_node_184;
  to R1-12-47-4_node_84;
  length 1.000;
  configuration ID_49;
}
object underground_line {
  name R1-12-47-4_ul_124;
// downstream 540.85 kva on ABCS
  phases ABCN;
  from R1-12-47-4_node_87;
  to R1-12-47-4_node_185;
  length 1.000;
  configuration ID_49;
}
object underground_line {
  name R1-12-47-4_ul_125;
// downstream 676.85 kva on ABCS
  phases ABCN;
  from R1-12-47-4_node_186;
  to R1-12-47-4_node_87;
  length 1.000;
  configuration ID_49;
}
object underground_line {
  name R1-12-47-4_ul_126;
// downstream 387.69 kva on ABCS
  phases ABCN;
  from R1-12-47-4_node_171;
  to R1-12-47-4_node_170;
  length 4.000;
  configuration ID_48;
}
object underground_line {
  name R1-12-47-4_ul_127;
// downstream 387.69 kva on ABCS
  phases ABCN;
  from R1-12-47-4_node_172;
  to R1-12-47-4_node_171;
  length 4.000;
  configuration ID_48;
}
object underground_line {
  name R1-12-47-4_ul_128;
  phases ABCN;
  from R1-12-47-4_node_171;
  to R1-12-47-4_node_174;
  length 10.000;
  configuration ID_48;
}
object underground_line {
  name R1-12-47-4_ul_129;
  phases ABCN;
  from R1-12-47-4_node_174;
  to R1-12-47-4_node_173;
  length 4.000;
  configuration ID_48;
}
object underground_line {
  name R1-12-47-4_ul_130;
  phases ABCN;
  from R1-12-47-4_node_174;
  to R1-12-47-4_node_175;
  length 4.000;
  configuration ID_48;
}
object underground_line {
  name R1-12-47-4_ul_131;
// downstream 1129.74 kva on ABCS
  phases ABCN;
  from R1-12-47-4_node_177;
  to R1-12-47-4_node_176;
  length 4.000;
  configuration ID_48;
}
object underground_line {
  name R1-12-47-4_ul_132;
// downstream 387.69 kva on ABCS
  phases ABCN;
  from R1-12-47-4_node_177;
  to R1-12-47-4_node_178;
  length 4.000;
  configuration ID_48;
}
object underground_line {
  name R1-12-47-4_ul_133;
// downstream 1517.43 kva on ABCS
  phases ABCN;
  from R1-12-47-4_node_180;
  to R1-12-47-4_node_177;
  length 10.000;
  configuration ID_48;
}
object underground_line {
  name R1-12-47-4_ul_134;
// downstream 1842.82 kva on ABCS
  phases ABCN;
  from R1-12-47-4_node_179;
  to R1-12-47-4_node_180;
  length 4.000;
  configuration ID_48;
}
object underground_line {
  name R1-12-47-4_ul_135;
// downstream 325.38 kva on ABCS
  phases ABCN;
  from R1-12-47-4_node_180;
  to R1-12-47-4_node_181;
  length 4.000;
  configuration ID_48;
}
object underground_line {
  name R1-12-47-4_ul_136;
// downstream 170.51 kva on ABCS
  phases ABCN;
  from R1-12-47-4_node_91;
  to R1-12-47-4_node_188;
  length 1.000;
  configuration ID_49;
}
object underground_line {
  name R1-12-47-4_ul_137;
  phases ABCN;
  from R1-12-47-4_node_64;
  to R1-12-47-4_node_304;
  length 1.000;
  configuration ID_49;
}
object underground_line {
  name R1-12-47-4_ul_138;
// downstream 325.38 kva on ABCS
  phases ABCN;
  from R1-12-47-4_node_189;
  to R1-12-47-4_node_59;
  length 1.000;
  configuration ID_49;
}
object underground_line {
  name R1-12-47-4_ul_139;
// downstream 267.66 kva on ABC
  phases ABCN;
  from R1-12-47-4_node_216;
  to R1-12-47-4_node_121;
  length 236.000;
  configuration ID_50;
}
object underground_line {
  name R1-12-47-4_ul_140;
  phases ABCN;
  from R1-12-47-4_node_104;
  to R1-12-47-4_node_4;
  length 362.000;
  configuration ID_50;
}
object underground_line {
  name R1-12-47-4_ul_141;
// downstream 3626.46 kva on ABCS
  phases ABCN;
  from R1-12-47-4_node_130;
  to R1-12-47-4_node_139;
  length 284.000;
  configuration ID_49;
}
object underground_line {
  name R1-12-47-4_ul_142;
  phases ABCN;
  from R1-12-47-4_node_143;
  to R1-12-47-4_node_221;
  length 93.000;
  configuration ID_50;
}
object underground_line {
  name R1-12-47-4_ul_143;
// downstream 4556.55 kva on ABCS
  phases ABCN;
  from R1-12-47-4_node_110;
  to R1-12-47-4_node_109;
  length 118.000;
  configuration ID_49;
}
object underground_line {
  name R1-12-47-4_ul_144;
// downstream 299.93 kva on ABC
  phases ABCN;
  from R1-12-47-4_node_210;
  to R1-12-47-4_node_112;
  length 178.000;
  configuration ID_50;
}
object underground_line {
  name R1-12-47-4_ul_145;
// downstream 299.93 kva on ABC
  phases ABCN;
  from R1-12-47-4_node_112;
  to R1-12-47-4_node_211;
  length 17.000;
  configuration ID_50;
}
object underground_line {
  name R1-12-47-4_ul_146;
// downstream 205.16 kva on ABC
  phases ABCN;
  from R1-12-47-4_node_212;
  to R1-12-47-4_node_114;
  length 15.000;
  configuration ID_50;
}
object underground_line {
  name R1-12-47-4_ul_147;
// downstream 205.16 kva on ABC
  phases ABCN;
  from R1-12-47-4_node_114;
  to R1-12-47-4_node_213;
  length 255.000;
  configuration ID_50;
}
object underground_line {
  name R1-12-47-4_ul_148;
// downstream 4556.55 kva on ABCS
  phases ABCN;
  from R1-12-47-4_node_116;
  to R1-12-47-4_node_110;
  length 134.000;
  configuration ID_49;
}
object underground_line {
  name R1-12-47-4_ul_149;
// downstream 4556.55 kva on ABCS
  phases ABCN;
  from R1-12-47-4_node_117;
  to R1-12-47-4_node_116;
  length 294.000;
  configuration ID_49;
}
object underground_line {
  name R1-12-47-4_ul_150;
  phases ABCN;
  from R1-12-47-4_node_146;
  to R1-12-47-4_node_145;
  length 134.000;
  configuration ID_49;
}
object underground_line {
  name R1-12-47-4_ul_151;
// downstream 912.72 kva on ABCS
  phases ABCN;
  from R1-12-47-4_node_7;
  to R1-12-47-4_node_146;
  length 112.000;
  configuration ID_49;
}
object underground_line {
  name R1-12-47-4_ul_152;
// downstream 912.72 kva on ABCS
  phases ABCN;
  from R1-12-47-4_node_56;
  to R1-12-47-4_node_8;
  length 113.000;
  configuration ID_49;
}
object underground_line {
  name R1-12-47-4_ul_153;
// downstream 536.22 kva on ABCS
  phases ABCN;
  from R1-12-47-4_node_6;
  to R1-12-47-4_node_65;
  length 33.000;
  configuration ID_49;
}
object underground_line {
  name R1-12-47-4_ul_154;
// downstream 376.49 kva on ABCS
  phases ABCN;
  from R1-12-47-4_node_147;
  to R1-12-47-4_node_148;
  length 258.000;
  configuration ID_49;
}
object underground_line {
  name R1-12-47-4_ul_155;
// downstream 379.67 kva on ABC
  phases ABCN;
  from R1-12-47-4_node_107;
  to R1-12-47-4_node_118;
  length 111.000;
  configuration ID_50;
}
object underground_line {
  name R1-12-47-4_ul_156;
// downstream 379.67 kva on ABC
  phases ABCN;
  from R1-12-47-4_node_118;
  to R1-12-47-4_node_119;
  length 136.000;
  configuration ID_50;
}
object underground_line {
  name R1-12-47-4_ul_157;
// downstream 379.67 kva on ABC
  phases ABCN;
  from R1-12-47-4_node_119;
  to R1-12-47-4_node_215;
  length 235.000;
  configuration ID_50;
}
object underground_line {
  name R1-12-47-4_ul_158;
// downstream 3626.46 kva on ABCS
  phases ABCN;
  from R1-12-47-4_node_108;
  to R1-12-47-4_node_122;
  length 114.000;
  configuration ID_49;
}
object underground_line {
  name R1-12-47-4_ul_159;
// downstream 267.66 kva on ABC
  phases ABCN;
  from R1-12-47-4_node_121;
  to R1-12-47-4_node_123;
  length 152.000;
  configuration ID_50;
}
object underground_line {
  name R1-12-47-4_ul_160;
// downstream 267.66 kva on ABC
  phases ABCN;
  from R1-12-47-4_node_123;
  to R1-12-47-4_node_124;
  length 453.000;
  configuration ID_50;
}
object underground_line {
  name R1-12-47-4_ul_161;
// downstream 267.66 kva on ABC
  phases ABCN;
  from R1-12-47-4_node_124;
  to R1-12-47-4_node_125;
  length 350.000;
  configuration ID_50;
}
object underground_line {
  name R1-12-47-4_ul_162;
// downstream 267.66 kva on ABC
  phases ABCN;
  from R1-12-47-4_node_125;
  to R1-12-47-4_node_217;
  length 19.000;
  configuration ID_50;
}
object underground_line {
  name R1-12-47-4_ul_163;
// downstream 115.71 kva on ABC
  phases ABCN;
  from R1-12-47-4_node_218;
  to R1-12-47-4_node_127;
  length 19.000;
  configuration ID_50;
}
object underground_line {
  name R1-12-47-4_ul_164;
// downstream 115.71 kva on ABC
  phases ABCN;
  from R1-12-47-4_node_127;
  to R1-12-47-4_node_128;
  length 53.000;
  configuration ID_50;
}
object underground_line {
  name R1-12-47-4_ul_165;
// downstream 115.71 kva on ABC
  phases ABCN;
  from R1-12-47-4_node_128;
  to R1-12-47-4_node_129;
  length 95.000;
  configuration ID_50;
}
object underground_line {
  name R1-12-47-4_ul_166;
// downstream 3626.46 kva on ABCS
  phases ABCN;
  from R1-12-47-4_node_122;
  to R1-12-47-4_node_130;
  length 133.000;
  configuration ID_49;
}
object underground_line {
  name R1-12-47-4_ul_167;
// downstream 115.71 kva on ABC
  phases ABCN;
  from R1-12-47-4_node_129;
  to R1-12-47-4_node_131;
  length 459.000;
  configuration ID_50;
}
object underground_line {
  name R1-12-47-4_ul_168;
// downstream 115.71 kva on ABC
  phases ABCN;
  from R1-12-47-4_node_131;
  to R1-12-47-4_node_105;
  length 44.000;
  configuration ID_50;
}
object underground_line {
  name R1-12-47-4_ul_169;
// downstream 115.71 kva on ABC
  phases ABCN;
  from R1-12-47-4_node_103;
  to R1-12-47-4_node_132;
  length 47.000;
  configuration ID_50;
}
object underground_line {
  name R1-12-47-4_ul_170;
// downstream 115.71 kva on ABC
  phases ABCN;
  from R1-12-47-4_node_132;
  to R1-12-47-4_node_133;
  length 459.000;
  configuration ID_50;
}
object underground_line {
  name R1-12-47-4_ul_171;
// downstream 115.71 kva on ABC
  phases ABCN;
  from R1-12-47-4_node_133;
  to R1-12-47-4_node_134;
  length 96.000;
  configuration ID_50;
}
object underground_line {
  name R1-12-47-4_ul_172;
// downstream 115.71 kva on ABC
  phases ABCN;
  from R1-12-47-4_node_134;
  to R1-12-47-4_node_135;
  length 44.000;
  configuration ID_50;
}
object underground_line {
  name R1-12-47-4_ul_173;
// downstream 115.71 kva on ABC
  phases ABCN;
  from R1-12-47-4_node_135;
  to R1-12-47-4_node_136;
  length 364.000;
  configuration ID_50;
}
object underground_line {
  name R1-12-47-4_ul_174;
// downstream 115.71 kva on ABC
  phases ABCN;
  from R1-12-47-4_node_136;
  to R1-12-47-4_node_137;
  length 70.000;
  configuration ID_50;
}
object underground_line {
  name R1-12-47-4_ul_175;
// downstream 115.71 kva on ABC
  phases ABCN;
  from R1-12-47-4_node_137;
  to R1-12-47-4_node_138;
  length 143.000;
  configuration ID_50;
}
object underground_line {
  name R1-12-47-4_ul_176;
// downstream 115.71 kva on ABC
  phases ABCN;
  from R1-12-47-4_node_138;
  to R1-12-47-4_node_219;
  length 41.000;
  configuration ID_50;
}
object underground_line {
  name R1-12-47-4_ul_177;
  phases ABCN;
  from R1-12-47-4_node_220;
  to R1-12-47-4_node_141;
  length 45.000;
  configuration ID_50;
}
object underground_line {
...